*** SPICE deck for cell testJTLplain{sch} from library aNewTestLibrary
*** Created on Sat Jan 09, 2021 14:13:09
*** Last revised on Mon Aug 26, 2024 11:38:12
*** Written on Mon Aug 26, 2024 11:55:08 by Electric VLSI Design System, version 9.08e
*** Layout tech: josephson, foundry NONE
*** UC SPICE *** , MIN_RESIST 0.0, MIN_CAPAC 0.0FF
* Model cards copied from file: /Users/ivans/years/2020-2024/2024/2024-ivan/electric-2024/theBest1aug24/aTests/testJTLplain.txt
*** These are the print statement for testJTLplain
*** ies 26 August 2024
*** josim -o Aoutput.csv testJTLplain.cir 



.tran 0.1p 20p 0 0.1p


.print DEVV BJi|xJ28
.print DEVV BJi|xJ37
.print DEVV BJi|xJ64
.print DEVV BJi|xJ73




* End of Model cards copied from file: /Users/ivans/years/2020-2024/2024/2024-ivan/electric-2024/theBest1jul24/aTests/testJTL.txt
.model jmitll jj(rtype=1, vg=.002V, cap=0.07pF, r0=160, rN=16, icrit=0.0001A)


.SUBCKT junctionsBypassGround__gbj1p0 D 
BJi D gnd jmitll area=1.25
RRi D gnd 5.36
.ENDS junctionsBypassGround__gbj1p0


*** SUBCIRCUIT inductors__fixedInd1p5 FROM CELL inductors:fixedInd3p0{sch}
.SUBCKT inductors__fixedInd1p5 A B
LLi A B 7.891E-12
.ENDS inductors__fixedInd1p5


*** SUBCIRCUIT conductors__anyBias-Lk_0 FROM CELL conductors:anyBias{sch}
.SUBCKT conductors__anyBias-Lk_0  D
RR1 NN D 29.42
VrampSppl@0 NN gnd pwl (0 0 1p 0.0026V)
.ENDS conductors__anyBias-Lk_0_707



****.SUBCKT conductors__anyBias-Lk_0 D
****RR1 NN D 8
****VrampSppl@0 NN gnd pwl (0 0 1p 3.86V)
***.ENDS conductors__anyBias-Lk_0

*** SUBCIRCUIT junctions__jb2p0 FROM CELL junctions:jb2p0{sch}
.SUBCKT junctions__jb2p0 D S
BJi S D jmitll area=2.5
RRi S D 2.68
.ENDS junctions__jb2p0

*** SUBCIRCUIT junctions__jb200p0 FROM CELL junctions:jb200p0{sch}
.SUBCKT junctions__jb200p0 D S
BJi S D jmitll area=250.0
RRi S D 0.0268
.ENDS junctions__jb200p0

*** SUBCIRCUIT conductors__anyBias-Lk_1_414 FROM CELL conductors:anyBias{sch}
.SUBCKT conductors__anyBias-Lk_1_414 D
RR1 NN D 14.71
VrampSppl@0 NN gnd pwl (0 0 1p 0.0026V)
.ENDS conductors__anyBias-Lk_1_414

*** SUBCIRCUIT conductors__bias1p4 FROM CELL conductors:bias1p4{sch}
.SUBCKT conductors__bias1p4 D
Xnormaliz@0 D conductors__anyBias-Lk_1_414
.ENDS conductors__bias1p4

*** SUBCIRCUIT conductors__anyBias-Lk_141_4 FROM CELL conductors:anyBias{sch}
.SUBCKT conductors__anyBias-Lk_141_4 D
RR1 NN D 0.147
VrampSppl@0 NN gnd pwl (0 0 1p 0.0026V)
.ENDS conductors__anyBias-Lk_141_4

*** SUBCIRCUIT conductors__bias1p4x100 FROM CELL conductors:bias1p4x100{sch}
.SUBCKT conductors__bias1p4x100 D
Xnormaliz@0 D conductors__anyBias-Lk_141_4
.ENDS conductors__bias1p4x100

*** SUBCIRCUIT newJTL__phaseReference FROM CELL newJTL:phaseReference{sch}
.SUBCKT newJTL__phaseReference B1 B2 gnd
XJ1 gnd B1 junctions__jb2p0
XJ2 gnd B2 junctions__jb200p0
LM1 net@4 B1 10e-16
LM2 net@3 B2 10e-16
Xbias1p4@0 net@4 conductors__bias1p4
Xbias1p4x@0 net@3 conductors__bias1p4x100
.ENDS newJTL__phaseReference



**cart_pole_input**
.SUBCKT conductors__anyBias-Lk_0_701 bottom out
VrampSppl@0 bottom out pwl(8000p 1mV 8001p 0mV 13000p 1mV 13001p 0mV 22000p 1mV 22001p 0mV 44000p 1mV 44001p 0mV 52000p 1mV 52001p 0mV 55000p 1mV 55001p 0mV 83000p 1mV 83001p 0mV 87000p 1mV 87001p 0mV 91000p 1mV 91001p 0mV 115000p 1mV 115001p 0mV 121000p 1mV 121001p 0mV 137000p 1mV 137001p 0mV 140000p 1mV 140001p 0mV 141000p 1mV 141001p 0mV 188000p 1mV 188001p 0mV 204000p 1mV 204001p 0mV 219000p 1mV 219001p 0mV 226000p 1mV 226001p 0mV 229000p 1mV 229001p 0mV 233000p 1mV 233001p 0mV 249000p 1mV 249001p 0mV 254000p 1mV 254001p 0mV 259000p 1mV 259001p 0mV 268000p 1mV 268001p 0mV 281000p 1mV 281001p 0mV 301000p 1mV 301001p 0mV 302000p 1mV 302001p 0mV 313000p 1mV 313001p 0mV 339000p 1mV 339001p 0mV 346000p 1mV 346001p 0mV 381000p 1mV 381001p 0mV 396000p 1mV 396001p 0mV 410000p 1mV 410001p 0mV 436000p 1mV 436001p 0mV 452000p 1mV 452001p 0mV 456000p 1mV 456001p 0mV 476000p 1mV 476001p 0mV 484000p 1mV 484001p 0mV 486000p 1mV 486001p 0mV 495000p 1mV 495001p 0mV 496000p 1mV 496001p 0mV 513000p 1mV 513001p 0mV 542000p 1mV 542001p 0mV 543000p 1mV 543001p 0mV 625000p 1mV 625001p 0mV 650000p 1mV 650001p 0mV 712000p 1mV 712001p 0mV 734000p 1mV 734001p 0mV 767000p 1mV 767001p 0mV 771000p 1mV 771001p 0mV 777000p 1mV 777001p 0mV 780000p 1mV 780001p 0mV 804000p 1mV 804001p 0mV 813000p 1mV 813001p 0mV 829000p 1mV 829001p 0mV 830000p 1mV 830001p 0mV 836000p 1mV 836001p 0mV 838000p 1mV 838001p 0mV 839000p 1mV 839001p 0mV 862000p 1mV 862001p 0mV 890000p 1mV 890001p 0mV 894000p 1mV 894001p 0mV 935000p 1mV 935001p 0mV 952000p 1mV 952001p 0mV 954000p 1mV 954001p 0mV 984000p 1mV 984001p 0mV 985000p 1mV 985001p 0mV 1000000p 1mV 1000001p 0mV 1019000p 1mV 1019001p 0mV 1033000p 1mV 1033001p 0mV 1051000p 1mV 1051001p 0mV 1056000p 1mV 1056001p 0mV 1057000p 1mV 1057001p 0mV 1086000p 1mV 1086001p 0mV 1090000p 1mV 1090001p 0mV 1109000p 1mV 1109001p 0mV 1116000p 1mV 1116001p 0mV 1126000p 1mV 1126001p 0mV 1149000p 1mV 1149001p 0mV 1152000p 1mV 1152001p 0mV 1276000p 1mV 1276001p 0mV 1287000p 1mV 1287001p 0mV 1311000p 1mV 1311001p 0mV 1315000p 1mV 1315001p 0mV 1323000p 1mV 1323001p 0mV 1328000p 1mV 1328001p 0mV 1354000p 1mV 1354001p 0mV 1359000p 1mV 1359001p 0mV 1375000p 1mV 1375001p 0mV 1382000p 1mV 1382001p 0mV 1397000p 1mV 1397001p 0mV 1419000p 1mV 1419001p 0mV 1452000p 1mV 1452001p 0mV 1455000p 1mV 1455001p 0mV 1490000p 1mV 1490001p 0mV 1522000p 1mV 1522001p 0mV 1561000p 1mV 1561001p 0mV 1571000p 1mV 1571001p 0mV 1578000p 1mV 1578001p 0mV 1583000p 1mV 1583001p 0mV 1598000p 1mV 1598001p 0mV 1609000p 1mV 1609001p 0mV 1633000p 1mV 1633001p 0mV 1658000p 1mV 1658001p 0mV 1671000p 1mV 1671001p 0mV 1740000p 1mV 1740001p 0mV 1754000p 1mV 1754001p 0mV 1763000p 1mV 1763001p 0mV 1771000p 1mV 1771001p 0mV 1787000p 1mV 1787001p 0mV 1797000p 1mV 1797001p 0mV 1808000p 1mV 1808001p 0mV 1810000p 1mV 1810001p 0mV 1838000p 1mV 1838001p 0mV 1841000p 1mV 1841001p 0mV 1850000p 1mV 1850001p 0mV 1854000p 1mV 1854001p 0mV 1873000p 1mV 1873001p 0mV 1884000p 1mV 1884001p 0mV 1887000p 1mV 1887001p 0mV 1897000p 1mV 1897001p 0mV 1901000p 1mV 1901001p 0mV 1903000p 1mV 1903001p 0mV 1928000p 1mV 1928001p 0mV 1933000p 1mV 1933001p 0mV 1961000p 1mV 1961001p 0mV 1978000p 1mV 1978001p 0mV 1980000p 1mV 1980001p 0mV 2003000p 1mV 2003001p 0mV 2020000p 1mV 2020001p 0mV 2028000p 1mV 2028001p 0mV 2030000p 1mV 2030001p 0mV 2039000p 1mV 2039001p 0mV 2048000p 1mV 2048001p 0mV 2056000p 1mV 2056001p 0mV 2081000p 1mV 2081001p 0mV 2090000p 1mV 2090001p 0mV 2115000p 1mV 2115001p 0mV 2124000p 1mV 2124001p 0mV 2126000p 1mV 2126001p 0mV 2157000p 1mV 2157001p 0mV 2164000p 1mV 2164001p 0mV 2173000p 1mV 2173001p 0mV 2174000p 1mV 2174001p 0mV 2200000p 1mV 2200001p 0mV 2209000p 1mV 2209001p 0mV 2220000p 1mV 2220001p 0mV 2228000p 1mV 2228001p 0mV 2231000p 1mV 2231001p 0mV 2233000p 1mV 2233001p 0mV 2239000p 1mV 2239001p 0mV 2333000p 1mV 2333001p 0mV 2335000p 1mV 2335001p 0mV 2338000p 1mV 2338001p 0mV 2355000p 1mV 2355001p 0mV 2387000p 1mV 2387001p 0mV 2390000p 1mV 2390001p 0mV 2418000p 1mV 2418001p 0mV 2421000p 1mV 2421001p 0mV 2427000p 1mV 2427001p 0mV 2501000p 1mV 2501001p 0mV 2548000p 1mV 2548001p 0mV 2558000p 1mV 2558001p 0mV 2584000p 1mV 2584001p 0mV 2589000p 1mV 2589001p 0mV 2641000p 1mV 2641001p 0mV 2665000p 1mV 2665001p 0mV 2682000p 1mV 2682001p 0mV 2712000p 1mV 2712001p 0mV 2740000p 1mV 2740001p 0mV 2766000p 1mV 2766001p 0mV 2775000p 1mV 2775001p 0mV 2818000p 1mV 2818001p 0mV 2842000p 1mV 2842001p 0mV 2858000p 1mV 2858001p 0mV 2888000p 1mV 2888001p 0mV 2903000p 1mV 2903001p 0mV 2913000p 1mV 2913001p 0mV 2983000p 1mV 2983001p 0mV 2989000p 1mV 2989001p 0mV 3035000p 1mV 3035001p 0mV 3054000p 1mV 3054001p 0mV 3113000p 1mV 3113001p 0mV 3136000p 1mV 3136001p 0mV 3163000p 1mV 3163001p 0mV 3166000p 1mV 3166001p 0mV 3174000p 1mV 3174001p 0mV 3175000p 1mV 3175001p 0mV 3186000p 1mV 3186001p 0mV 3207000p 1mV 3207001p 0mV 3238000p 1mV 3238001p 0mV 3256000p 1mV 3256001p 0mV 3258000p 1mV 3258001p 0mV 3264000p 1mV 3264001p 0mV 3276000p 1mV 3276001p 0mV 3280000p 1mV 3280001p 0mV 3292000p 1mV 3292001p 0mV 3308000p 1mV 3308001p 0mV 3392000p 1mV 3392001p 0mV 3410000p 1mV 3410001p 0mV 3419000p 1mV 3419001p 0mV 3445000p 1mV 3445001p 0mV 3446000p 1mV 3446001p 0mV 3458000p 1mV 3458001p 0mV 3464000p 1mV 3464001p 0mV 3479000p 1mV 3479001p 0mV 3515000p 1mV 3515001p 0mV 3520000p 1mV 3520001p 0mV 3522000p 1mV 3522001p 0mV 3525000p 1mV 3525001p 0mV 3542000p 1mV 3542001p 0mV 3565000p 1mV 3565001p 0mV 3585000p 1mV 3585001p 0mV 3611000p 1mV 3611001p 0mV 3640000p 1mV 3640001p 0mV 3666000p 1mV 3666001p 0mV 3681000p 1mV 3681001p 0mV 3682000p 1mV 3682001p 0mV 3706000p 1mV 3706001p 0mV 3739000p 1mV 3739001p 0mV 3742000p 1mV 3742001p 0mV 3744000p 1mV 3744001p 0mV 3755000p 1mV 3755001p 0mV 3766000p 1mV 3766001p 0mV 3775000p 1mV 3775001p 0mV 3778000p 1mV 3778001p 0mV 3861000p 1mV 3861001p 0mV 3908000p 1mV 3908001p 0mV 3917000p 1mV 3917001p 0mV 3921000p 1mV 3921001p 0mV 3929000p 1mV 3929001p 0mV 3936000p 1mV 3936001p 0mV 3944000p 1mV 3944001p 0mV 3953000p 1mV 3953001p 0mV 3956000p 1mV 3956001p 0mV 3965000p 1mV 3965001p 0mV 3994000p 1mV 3994001p 0mV 4021000p 1mV 4021001p 0mV 4026000p 1mV 4026001p 0mV 4027000p 1mV 4027001p 0mV 4031000p 1mV 4031001p 0mV 4046000p 1mV 4046001p 0mV 4056000p 1mV 4056001p 0mV 4063000p 1mV 4063001p 0mV 4095000p 1mV 4095001p 0mV 4098000p 1mV 4098001p 0mV 4106000p 1mV 4106001p 0mV 4133000p 1mV 4133001p 0mV 4155000p 1mV 4155001p 0mV 4158000p 1mV 4158001p 0mV 4169000p 1mV 4169001p 0mV 4179000p 1mV 4179001p 0mV 4236000p 1mV 4236001p 0mV 4248000p 1mV 4248001p 0mV 4253000p 1mV 4253001p 0mV 4268000p 1mV 4268001p 0mV 4271000p 1mV 4271001p 0mV 4276000p 1mV 4276001p 0mV 4282000p 1mV 4282001p 0mV 4336000p 1mV 4336001p 0mV 4360000p 1mV 4360001p 0mV 4363000p 1mV 4363001p 0mV 4367000p 1mV 4367001p 0mV 4368000p 1mV 4368001p 0mV 4369000p 1mV 4369001p 0mV 4374000p 1mV 4374001p 0mV 4384000p 1mV 4384001p 0mV 4418000p 1mV 4418001p 0mV 4429000p 1mV 4429001p 0mV 4457000p 1mV 4457001p 0mV 4462000p 1mV 4462001p 0mV 4463000p 1mV 4463001p 0mV 4470000p 1mV 4470001p 0mV 4483000p 1mV 4483001p 0mV 4485000p 1mV 4485001p 0mV 4497000p 1mV 4497001p 0mV 4516000p 1mV 4516001p 0mV 4520000p 1mV 4520001p 0mV 4523000p 1mV 4523001p 0mV 4532000p 1mV 4532001p 0mV 4550000p 1mV 4550001p 0mV 4552000p 1mV 4552001p 0mV 4557000p 1mV 4557001p 0mV 4563000p 1mV 4563001p 0mV 4578000p 1mV 4578001p 0mV 4586000p 1mV 4586001p 0mV 4606000p 1mV 4606001p 0mV 4614000p 1mV 4614001p 0mV 4619000p 1mV 4619001p 0mV 4670000p 1mV 4670001p 0mV 4716000p 1mV 4716001p 0mV 4718000p 1mV 4718001p 0mV 4741000p 1mV 4741001p 0mV 4765000p 1mV 4765001p 0mV 4768000p 1mV 4768001p 0mV 4770000p 1mV 4770001p 0mV 4772000p 1mV 4772001p 0mV 4780000p 1mV 4780001p 0mV 4828000p 1mV 4828001p 0mV 4835000p 1mV 4835001p 0mV 4852000p 1mV 4852001p 0mV 4859000p 1mV 4859001p 0mV 4872000p 1mV 4872001p 0mV 4878000p 1mV 4878001p 0mV 4902000p 1mV 4902001p 0mV 4903000p 1mV 4903001p 0mV 4912000p 1mV 4912001p 0mV 4914000p 1mV 4914001p 0mV 4915000p 1mV 4915001p 0mV 4931000p 1mV 4931001p 0mV 4935000p 1mV 4935001p 0mV 4939000p 1mV 4939001p 0mV 4953000p 1mV 4953001p 0mV 4978000p 1mV 4978001p 0mV 4992000p 1mV 4992001p 0mV 5019000p 1mV 5019001p 0mV 5028000p 1mV 5028001p 0mV 5036000p 1mV 5036001p 0mV 5046000p 1mV 5046001p 0mV 5068000p 1mV 5068001p 0mV 5078000p 1mV 5078001p 0mV 5104000p 1mV 5104001p 0mV 5110000p 1mV 5110001p 0mV 5112000p 1mV 5112001p 0mV 5122000p 1mV 5122001p 0mV 5126000p 1mV 5126001p 0mV 5138000p 1mV 5138001p 0mV 5146000p 1mV 5146001p 0mV 5158000p 1mV 5158001p 0mV 5161000p 1mV 5161001p 0mV 5166000p 1mV 5166001p 0mV 5180000p 1mV 5180001p 0mV 5195000p 1mV 5195001p 0mV 5240000p 1mV 5240001p 0mV 5242000p 1mV 5242001p 0mV 5259000p 1mV 5259001p 0mV 5271000p 1mV 5271001p 0mV 5277000p 1mV 5277001p 0mV 5293000p 1mV 5293001p 0mV 5308000p 1mV 5308001p 0mV 5310000p 1mV 5310001p 0mV 5317000p 1mV 5317001p 0mV 5328000p 1mV 5328001p 0mV 5339000p 1mV 5339001p 0mV 5351000p 1mV 5351001p 0mV 5352000p 1mV 5352001p 0mV 5367000p 1mV 5367001p 0mV 5369000p 1mV 5369001p 0mV 5383000p 1mV 5383001p 0mV 5396000p 1mV 5396001p 0mV 5412000p 1mV 5412001p 0mV 5414000p 1mV 5414001p 0mV 5455000p 1mV 5455001p 0mV 5456000p 1mV 5456001p 0mV 5511000p 1mV 5511001p 0mV 5519000p 1mV 5519001p 0mV 5535000p 1mV 5535001p 0mV 5573000p 1mV 5573001p 0mV 5598000p 1mV 5598001p 0mV 5605000p 1mV 5605001p 0mV 5644000p 1mV 5644001p 0mV 5661000p 1mV 5661001p 0mV 5752000p 1mV 5752001p 0mV 5767000p 1mV 5767001p 0mV 5799000p 1mV 5799001p 0mV 5825000p 1mV 5825001p 0mV 5847000p 1mV 5847001p 0mV 5850000p 1mV 5850001p 0mV 5857000p 1mV 5857001p 0mV 5864000p 1mV 5864001p 0mV 5867000p 1mV 5867001p 0mV 5881000p 1mV 5881001p 0mV 5923000p 1mV 5923001p 0mV 5927000p 1mV 5927001p 0mV 5928000p 1mV 5928001p 0mV 5985000p 1mV 5985001p 0mV 6000000p 1mV 6000001p 0mV 6037000p 1mV 6037001p 0mV 6039000p 1mV 6039001p 0mV 6075000p 1mV 6075001p 0mV 6092000p 1mV 6092001p 0mV 6096000p 1mV 6096001p 0mV 6116000p 1mV 6116001p 0mV 6128000p 1mV 6128001p 0mV 6162000p 1mV 6162001p 0mV 6168000p 1mV 6168001p 0mV 6192000p 1mV 6192001p 0mV 6237000p 1mV 6237001p 0mV 6247000p 1mV 6247001p 0mV 6258000p 1mV 6258001p 0mV 6286000p 1mV 6286001p 0mV 6293000p 1mV 6293001p 0mV 6300000p 1mV 6300001p 0mV 6362000p 1mV 6362001p 0mV 6408000p 1mV 6408001p 0mV 6492000p 1mV 6492001p 0mV 6520000p 1mV 6520001p 0mV 6539000p 1mV 6539001p 0mV 6551000p 1mV 6551001p 0mV 6565000p 1mV 6565001p 0mV 6574000p 1mV 6574001p 0mV 6608000p 1mV 6608001p 0mV 6620000p 1mV 6620001p 0mV 6631000p 1mV 6631001p 0mV 6663000p 1mV 6663001p 0mV 6674000p 1mV 6674001p 0mV 6677000p 1mV 6677001p 0mV 6802000p 1mV 6802001p 0mV 6803000p 1mV 6803001p 0mV 6821000p 1mV 6821001p 0mV 6829000p 1mV 6829001p 0mV 6863000p 1mV 6863001p 0mV 7032000p 1mV 7032001p 0mV 7050000p 1mV 7050001p 0mV 7234000p 1mV 7234001p 0mV 7283000p 1mV 7283001p 0mV 7431000p 1mV 7431001p 0mV 7508000p 1mV 7508001p 0mV 7616000p 1mV 7616001p 0mV 7643000p 1mV 7643001p 0mV 7656000p 1mV 7656001p 0mV 7664000p 1mV 7664001p 0mV 7914000p 1mV 7914001p 0mV 7984000p 1mV 7984001p 0mV 8048000p 1mV 8048001p 0mV 8051000p 1mV 8051001p 0mV 8220000p 1mV 8220001p 0mV 8258000p 1mV 8258001p 0mV 8277000p 1mV 8277001p 0mV 8311000p 1mV 8311001p 0mV 8329000p 1mV 8329001p 0mV 8379000p 1mV 8379001p 0mV 8385000p 1mV 8385001p 0mV 8394000p 1mV 8394001p 0mV 8447000p 1mV 8447001p 0mV 8461000p 1mV 8461001p 0mV 8540000p 1mV 8540001p 0mV 8600000p 1mV 8600001p 0mV 8663000p 1mV 8663001p 0mV 8665000p 1mV 8665001p 0mV 8669000p 1mV 8669001p 0mV 8720000p 1mV 8720001p 0mV 8800000p 1mV 8800001p 0mV 8816000p 1mV 8816001p 0mV 8833000p 1mV 8833001p 0mV 8849000p 1mV 8849001p 0mV 8866000p 1mV 8866001p 0mV 8959000p 1mV 8959001p 0mV 9011000p 1mV 9011001p 0mV 9013000p 1mV 9013001p 0mV 9073000p 1mV 9073001p 0mV 9077000p 1mV 9077001p 0mV 9146000p 1mV 9146001p 0mV 9165000p 1mV 9165001p 0mV 9204000p 1mV 9204001p 0mV 9208000p 1mV 9208001p 0mV 9298000p 1mV 9298001p 0mV 9434000p 1mV 9434001p 0mV 9459000p 1mV 9459001p 0mV 9700000p 1mV 9700001p 0mV 9731000p 1mV 9731001p 0mV 9732000p 1mV 9732001p 0mV 9791000p 1mV 9791001p 0mV 9794000p 1mV 9794001p 0mV 9805000p 1mV 9805001p 0mV 9854000p 1mV 9854001p 0mV 9897000p 1mV 9897001p 0mV 9899000p 1mV 9899001p 0mV 9903000p 1mV 9903001p 0mV 9934000p 1mV 9934001p 0mV 9942000p 1mV 9942001p 0mV 9949000p 1mV 9949001p 0mV 9987000p 1mV 9987001p 0mV 9998000p 1mV 9998001p 0mV)
.ENDS conductors__anyBias-Lk_0_701


.SUBCKT conductors__anyBias-Lk_0_702 bottom out
VrampSppl@0 bottom out pwl (301000p 1mV 301001p 0mV 302000p 1mV 302001p 0mV 308000p 1mV 308001p 0mV 310000p 1mV 310001p 0mV 311000p 1mV 311001p 0mV 315000p 1mV 315001p 0mV 321000p 1mV 321001p 0mV 337000p 1mV 337001p 0mV 340000p 1mV 340001p 0mV 355000p 1mV 355001p 0mV 362000p 1mV 362001p 0mV 366000p 1mV 366001p 0mV 377000p 1mV 377001p 0mV 378000p 1mV 378001p 0mV 388000p 1mV 388001p 0mV 413000p 1mV 413001p 0mV 424000p 1mV 424001p 0mV 442000p 1mV 442001p 0mV 453000p 1mV 453001p 0mV 456000p 1mV 456001p 0mV 474000p 1mV 474001p 0mV 478000p 1mV 478001p 0mV 487000p 1mV 487001p 0mV 523000p 1mV 523001p 0mV 528000p 1mV 528001p 0mV 553000p 1mV 553001p 0mV 569000p 1mV 569001p 0mV 571000p 1mV 571001p 0mV 602000p 1mV 602001p 0mV 621000p 1mV 621001p 0mV 623000p 1mV 623001p 0mV 624000p 1mV 624001p 0mV 628000p 1mV 628001p 0mV 633000p 1mV 633001p 0mV 635000p 1mV 635001p 0mV 651000p 1mV 651001p 0mV 656000p 1mV 656001p 0mV 660000p 1mV 660001p 0mV 667000p 1mV 667001p 0mV 675000p 1mV 675001p 0mV 680000p 1mV 680001p 0mV 681000p 1mV 681001p 0mV 682000p 1mV 682001p 0mV 691000p 1mV 691001p 0mV 713000p 1mV 713001p 0mV 718000p 1mV 718001p 0mV 722000p 1mV 722001p 0mV 744000p 1mV 744001p 0mV 746000p 1mV 746001p 0mV 754000p 1mV 754001p 0mV 775000p 1mV 775001p 0mV 780000p 1mV 780001p 0mV 790000p 1mV 790001p 0mV 795000p 1mV 795001p 0mV 798000p 1mV 798001p 0mV 805000p 1mV 805001p 0mV 824000p 1mV 824001p 0mV 826000p 1mV 826001p 0mV 836000p 1mV 836001p 0mV 842000p 1mV 842001p 0mV 848000p 1mV 848001p 0mV 851000p 1mV 851001p 0mV 857000p 1mV 857001p 0mV 861000p 1mV 861001p 0mV 875000p 1mV 875001p 0mV 876000p 1mV 876001p 0mV 879000p 1mV 879001p 0mV 884000p 1mV 884001p 0mV 889000p 1mV 889001p 0mV 896000p 1mV 896001p 0mV 905000p 1mV 905001p 0mV 911000p 1mV 911001p 0mV 915000p 1mV 915001p 0mV 919000p 1mV 919001p 0mV 924000p 1mV 924001p 0mV 928000p 1mV 928001p 0mV 932000p 1mV 932001p 0mV 935000p 1mV 935001p 0mV 979000p 1mV 979001p 0mV 986000p 1mV 986001p 0mV 991000p 1mV 991001p 0mV 1001000p 1mV 1001001p 0mV 1004000p 1mV 1004001p 0mV 1024000p 1mV 1024001p 0mV 1038000p 1mV 1038001p 0mV 1051000p 1mV 1051001p 0mV 1052000p 1mV 1052001p 0mV 1059000p 1mV 1059001p 0mV 1063000p 1mV 1063001p 0mV 1064000p 1mV 1064001p 0mV 1075000p 1mV 1075001p 0mV 1089000p 1mV 1089001p 0mV 1091000p 1mV 1091001p 0mV 1119000p 1mV 1119001p 0mV 1128000p 1mV 1128001p 0mV 1129000p 1mV 1129001p 0mV 1130000p 1mV 1130001p 0mV 1132000p 1mV 1132001p 0mV 1138000p 1mV 1138001p 0mV 1143000p 1mV 1143001p 0mV 1172000p 1mV 1172001p 0mV 1178000p 1mV 1178001p 0mV 1188000p 1mV 1188001p 0mV 1192000p 1mV 1192001p 0mV 1206000p 1mV 1206001p 0mV 1207000p 1mV 1207001p 0mV 1210000p 1mV 1210001p 0mV 1220000p 1mV 1220001p 0mV 1226000p 1mV 1226001p 0mV 1227000p 1mV 1227001p 0mV 1244000p 1mV 1244001p 0mV 1249000p 1mV 1249001p 0mV 1253000p 1mV 1253001p 0mV 1267000p 1mV 1267001p 0mV 1268000p 1mV 1268001p 0mV 1302000p 1mV 1302001p 0mV 1323000p 1mV 1323001p 0mV 1324000p 1mV 1324001p 0mV 1337000p 1mV 1337001p 0mV 1353000p 1mV 1353001p 0mV 1360000p 1mV 1360001p 0mV 1369000p 1mV 1369001p 0mV 1372000p 1mV 1372001p 0mV 1373000p 1mV 1373001p 0mV 1374000p 1mV 1374001p 0mV 1383000p 1mV 1383001p 0mV 1392000p 1mV 1392001p 0mV 1394000p 1mV 1394001p 0mV 1395000p 1mV 1395001p 0mV 1398000p 1mV 1398001p 0mV 1428000p 1mV 1428001p 0mV 1435000p 1mV 1435001p 0mV 1438000p 1mV 1438001p 0mV 1460000p 1mV 1460001p 0mV 1472000p 1mV 1472001p 0mV 1474000p 1mV 1474001p 0mV 1492000p 1mV 1492001p 0mV 1493000p 1mV 1493001p 0mV 1500000p 1mV 1500001p 0mV 1501000p 1mV 1501001p 0mV 1502000p 1mV 1502001p 0mV 1519000p 1mV 1519001p 0mV 1533000p 1mV 1533001p 0mV 1545000p 1mV 1545001p 0mV 1547000p 1mV 1547001p 0mV 1548000p 1mV 1548001p 0mV 1570000p 1mV 1570001p 0mV 1597000p 1mV 1597001p 0mV 1705000p 1mV 1705001p 0mV 1707000p 1mV 1707001p 0mV 1720000p 1mV 1720001p 0mV 1728000p 1mV 1728001p 0mV 1730000p 1mV 1730001p 0mV 1732000p 1mV 1732001p 0mV 1738000p 1mV 1738001p 0mV 1746000p 1mV 1746001p 0mV 1754000p 1mV 1754001p 0mV 1765000p 1mV 1765001p 0mV 1768000p 1mV 1768001p 0mV 1783000p 1mV 1783001p 0mV 1796000p 1mV 1796001p 0mV 1907000p 1mV 1907001p 0mV 1909000p 1mV 1909001p 0mV 1924000p 1mV 1924001p 0mV 1927000p 1mV 1927001p 0mV 1940000p 1mV 1940001p 0mV 1944000p 1mV 1944001p 0mV 1952000p 1mV 1952001p 0mV 1954000p 1mV 1954001p 0mV 1961000p 1mV 1961001p 0mV 1968000p 1mV 1968001p 0mV 1973000p 1mV 1973001p 0mV 1979000p 1mV 1979001p 0mV 1994000p 1mV 1994001p 0mV 2103000p 1mV 2103001p 0mV 2106000p 1mV 2106001p 0mV 2116000p 1mV 2116001p 0mV 2125000p 1mV 2125001p 0mV 2130000p 1mV 2130001p 0mV 2152000p 1mV 2152001p 0mV 2153000p 1mV 2153001p 0mV 2159000p 1mV 2159001p 0mV 2160000p 1mV 2160001p 0mV 2164000p 1mV 2164001p 0mV 2166000p 1mV 2166001p 0mV 2169000p 1mV 2169001p 0mV 2174000p 1mV 2174001p 0mV 3107000p 1mV 3107001p 0mV 3118000p 1mV 3118001p 0mV 3120000p 1mV 3120001p 0mV 3127000p 1mV 3127001p 0mV 3129000p 1mV 3129001p 0mV 3130000p 1mV 3130001p 0mV 3147000p 1mV 3147001p 0mV 3150000p 1mV 3150001p 0mV 3152000p 1mV 3152001p 0mV 3180000p 1mV 3180001p 0mV 3182000p 1mV 3182001p 0mV 3197000p 1mV 3197001p 0mV 3208000p 1mV 3208001p 0mV 3223000p 1mV 3223001p 0mV 3242000p 1mV 3242001p 0mV 3245000p 1mV 3245001p 0mV 3247000p 1mV 3247001p 0mV 3259000p 1mV 3259001p 0mV 3267000p 1mV 3267001p 0mV 3274000p 1mV 3274001p 0mV 3287000p 1mV 3287001p 0mV 3293000p 1mV 3293001p 0mV 3301000p 1mV 3301001p 0mV 3304000p 1mV 3304001p 0mV 3308000p 1mV 3308001p 0mV 3310000p 1mV 3310001p 0mV 3323000p 1mV 3323001p 0mV 3341000p 1mV 3341001p 0mV 3343000p 1mV 3343001p 0mV 3345000p 1mV 3345001p 0mV 3346000p 1mV 3346001p 0mV 3350000p 1mV 3350001p 0mV 3353000p 1mV 3353001p 0mV 3355000p 1mV 3355001p 0mV 3370000p 1mV 3370001p 0mV 3378000p 1mV 3378001p 0mV 3404000p 1mV 3404001p 0mV 3426000p 1mV 3426001p 0mV 3427000p 1mV 3427001p 0mV 3448000p 1mV 3448001p 0mV 3456000p 1mV 3456001p 0mV 3458000p 1mV 3458001p 0mV 3466000p 1mV 3466001p 0mV 3476000p 1mV 3476001p 0mV 3489000p 1mV 3489001p 0mV 3492000p 1mV 3492001p 0mV 3496000p 1mV 3496001p 0mV 3498000p 1mV 3498001p 0mV 3499000p 1mV 3499001p 0mV 3508000p 1mV 3508001p 0mV 3519000p 1mV 3519001p 0mV 3527000p 1mV 3527001p 0mV 3529000p 1mV 3529001p 0mV 3536000p 1mV 3536001p 0mV 3550000p 1mV 3550001p 0mV 3570000p 1mV 3570001p 0mV 3706000p 1mV 3706001p 0mV 3708000p 1mV 3708001p 0mV 3709000p 1mV 3709001p 0mV 3711000p 1mV 3711001p 0mV 3714000p 1mV 3714001p 0mV 3717000p 1mV 3717001p 0mV 3736000p 1mV 3736001p 0mV 3738000p 1mV 3738001p 0mV 3757000p 1mV 3757001p 0mV 3766000p 1mV 3766001p 0mV 3769000p 1mV 3769001p 0mV 3770000p 1mV 3770001p 0mV 3775000p 1mV 3775001p 0mV 3788000p 1mV 3788001p 0mV 3929000p 1mV 3929001p 0mV 3945000p 1mV 3945001p 0mV 3951000p 1mV 3951001p 0mV 3969000p 1mV 3969001p 0mV 3987000p 1mV 3987001p 0mV 3988000p 1mV 3988001p 0mV 3998000p 1mV 3998001p 0mV 4001000p 1mV 4001001p 0mV 4006000p 1mV 4006001p 0mV 4012000p 1mV 4012001p 0mV 4022000p 1mV 4022001p 0mV 4026000p 1mV 4026001p 0mV 4039000p 1mV 4039001p 0mV 4047000p 1mV 4047001p 0mV 4052000p 1mV 4052001p 0mV 4059000p 1mV 4059001p 0mV 4067000p 1mV 4067001p 0mV 4077000p 1mV 4077001p 0mV 4078000p 1mV 4078001p 0mV 4080000p 1mV 4080001p 0mV 4084000p 1mV 4084001p 0mV 4088000p 1mV 4088001p 0mV 4090000p 1mV 4090001p 0mV 4125000p 1mV 4125001p 0mV 4126000p 1mV 4126001p 0mV 4189000p 1mV 4189001p 0mV 4190000p 1mV 4190001p 0mV 4193000p 1mV 4193001p 0mV 4196000p 1mV 4196001p 0mV 4230000p 1mV 4230001p 0mV 4254000p 1mV 4254001p 0mV 4256000p 1mV 4256001p 0mV 4263000p 1mV 4263001p 0mV 4264000p 1mV 4264001p 0mV 4284000p 1mV 4284001p 0mV 4285000p 1mV 4285001p 0mV 4297000p 1mV 4297001p 0mV 4319000p 1mV 4319001p 0mV 4321000p 1mV 4321001p 0mV 4327000p 1mV 4327001p 0mV 4336000p 1mV 4336001p 0mV 4342000p 1mV 4342001p 0mV 4353000p 1mV 4353001p 0mV 4361000p 1mV 4361001p 0mV 4376000p 1mV 4376001p 0mV 4385000p 1mV 4385001p 0mV 4419000p 1mV 4419001p 0mV 4422000p 1mV 4422001p 0mV 4426000p 1mV 4426001p 0mV 4436000p 1mV 4436001p 0mV 4439000p 1mV 4439001p 0mV 4445000p 1mV 4445001p 0mV 4448000p 1mV 4448001p 0mV 4474000p 1mV 4474001p 0mV 4482000p 1mV 4482001p 0mV 4485000p 1mV 4485001p 0mV 4493000p 1mV 4493001p 0mV 4515000p 1mV 4515001p 0mV 4529000p 1mV 4529001p 0mV 4569000p 1mV 4569001p 0mV 4574000p 1mV 4574001p 0mV 4575000p 1mV 4575001p 0mV 4581000p 1mV 4581001p 0mV 4584000p 1mV 4584001p 0mV 4602000p 1mV 4602001p 0mV 4604000p 1mV 4604001p 0mV 4615000p 1mV 4615001p 0mV 4623000p 1mV 4623001p 0mV 4629000p 1mV 4629001p 0mV 4630000p 1mV 4630001p 0mV 4645000p 1mV 4645001p 0mV 4655000p 1mV 4655001p 0mV 4672000p 1mV 4672001p 0mV 4684000p 1mV 4684001p 0mV 4727000p 1mV 4727001p 0mV 4744000p 1mV 4744001p 0mV 4750000p 1mV 4750001p 0mV 4759000p 1mV 4759001p 0mV 4768000p 1mV 4768001p 0mV 4794000p 1mV 4794001p 0mV 4799000p 1mV 4799001p 0mV 4804000p 1mV 4804001p 0mV 4809000p 1mV 4809001p 0mV 4822000p 1mV 4822001p 0mV 4823000p 1mV 4823001p 0mV 4840000p 1mV 4840001p 0mV 4844000p 1mV 4844001p 0mV 4863000p 1mV 4863001p 0mV 4866000p 1mV 4866001p 0mV 4883000p 1mV 4883001p 0mV 4892000p 1mV 4892001p 0mV 4896000p 1mV 4896001p 0mV 4897000p 1mV 4897001p 0mV 4912000p 1mV 4912001p 0mV 4919000p 1mV 4919001p 0mV 4927000p 1mV 4927001p 0mV 4939000p 1mV 4939001p 0mV 4942000p 1mV 4942001p 0mV 4973000p 1mV 4973001p 0mV 4975000p 1mV 4975001p 0mV 4993000p 1mV 4993001p 0mV 5100000p 1mV 5100001p 0mV 5107000p 1mV 5107001p 0mV 5125000p 1mV 5125001p 0mV 5130000p 1mV 5130001p 0mV 5134000p 1mV 5134001p 0mV 5140000p 1mV 5140001p 0mV 5142000p 1mV 5142001p 0mV 5146000p 1mV 5146001p 0mV 5164000p 1mV 5164001p 0mV 5166000p 1mV 5166001p 0mV 5175000p 1mV 5175001p 0mV 5203000p 1mV 5203001p 0mV 5207000p 1mV 5207001p 0mV 5217000p 1mV 5217001p 0mV 5232000p 1mV 5232001p 0mV 5233000p 1mV 5233001p 0mV 5238000p 1mV 5238001p 0mV 5241000p 1mV 5241001p 0mV 5255000p 1mV 5255001p 0mV 5267000p 1mV 5267001p 0mV 5269000p 1mV 5269001p 0mV 5282000p 1mV 5282001p 0mV 5284000p 1mV 5284001p 0mV 5298000p 1mV 5298001p 0mV 5310000p 1mV 5310001p 0mV 5326000p 1mV 5326001p 0mV 5328000p 1mV 5328001p 0mV 5351000p 1mV 5351001p 0mV 5361000p 1mV 5361001p 0mV 5364000p 1mV 5364001p 0mV 5389000p 1mV 5389001p 0mV 5916000p 1mV 5916001p 0mV 5931000p 1mV 5931001p 0mV 5936000p 1mV 5936001p 0mV 5939000p 1mV 5939001p 0mV 5955000p 1mV 5955001p 0mV 5965000p 1mV 5965001p 0mV 5966000p 1mV 5966001p 0mV 5972000p 1mV 5972001p 0mV 5979000p 1mV 5979001p 0mV 6100000p 1mV 6100001p 0mV 6115000p 1mV 6115001p 0mV 6116000p 1mV 6116001p 0mV 6126000p 1mV 6126001p 0mV 6172000p 1mV 6172001p 0mV 6183000p 1mV 6183001p 0mV 6192000p 1mV 6192001p 0mV 6701000p 1mV 6701001p 0mV 6723000p 1mV 6723001p 0mV 6725000p 1mV 6725001p 0mV 6741000p 1mV 6741001p 0mV 6745000p 1mV 6745001p 0mV 6754000p 1mV 6754001p 0mV 6762000p 1mV 6762001p 0mV 6792000p 1mV 6792001p 0mV 6814000p 1mV 6814001p 0mV 6822000p 1mV 6822001p 0mV 6825000p 1mV 6825001p 0mV 6835000p 1mV 6835001p 0mV 6838000p 1mV 6838001p 0mV 6859000p 1mV 6859001p 0mV 6866000p 1mV 6866001p 0mV 6870000p 1mV 6870001p 0mV 6877000p 1mV 6877001p 0mV 6888000p 1mV 6888001p 0mV 6894000p 1mV 6894001p 0mV 7174000p 1mV 7174001p 0mV 7309000p 1mV 7309001p 0mV 7372000p 1mV 7372001p 0mV 7376000p 1mV 7376001p 0mV 7742000p 1mV 7742001p 0mV 8825000p 1mV 8825001p 0mV 8829000p 1mV 8829001p 0mV 8840000p 1mV 8840001p 0mV 8847000p 1mV 8847001p 0mV 8849000p 1mV 8849001p 0mV 8884000p 1mV 8884001p 0mV 8886000p 1mV 8886001p 0mV 9619000p 1mV 9619001p 0mV 9634000p 1mV 9634001p 0mV 9648000p 1mV 9648001p 0mV 9687000p 1mV 9687001p 0mV 9696000p 1mV 9696001p 0mV 9699000p 1mV 9699001p 0mV 9712000p 1mV 9712001p 0mV 9734000p 1mV 9734001p 0mV 9745000p 1mV 9745001p 0mV 9757000p 1mV 9757001p 0mV 9758000p 1mV 9758001p 0mV 9761000p 1mV 9761001p 0mV 9780000p 1mV 9780001p 0mV 9798000p 1mV 9798001p 0mV 9806000p 1mV 9806001p 0mV 9808000p 1mV 9808001p 0mV 9824000p 1mV 9824001p 0mV 9830000p 1mV 9830001p 0mV 9831000p 1mV 9831001p 0mV 9838000p 1mV 9838001p 0mV 9846000p 1mV 9846001p 0mV 9857000p 1mV 9857001p 0mV 9861000p 1mV 9861001p 0mV 9865000p 1mV 9865001p 0mV 9870000p 1mV 9870001p 0mV 9872000p 1mV 9872001p 0mV 9877000p 1mV 9877001p 0mV 9882000p 1mV 9882001p 0mV 9892000p 1mV 9892001p 0mV 9915000p 1mV 9915001p 0mV 9916000p 1mV 9916001p 0mV 9919000p 1mV 9919001p 0mV 9944000p 1mV 9944001p 0mV 9956000p 1mV 9956001p 0mV 9957000p 1mV 9957001p 0mV 9962000p 1mV 9962001p 0mV 9973000p 1mV 9973001p 0mV 9984000p 1mV 9984001p 0mV 9991000p 1mV 9991001p 0mV 9993000p 1mV 9993001p 0mV 9994000p 1mV 9994001p 0mV)
.ENDS conductors__anyBias-Lk_0_702

.SUBCKT conductors__anyBias-Lk_0_703 bottom out