*** SPICE deck for cell testJTLplain{sch} from library aNewTestLibrary
*** Created on Sat Jan 09, 2021 14:13:09
*** Last revised on Mon Aug 26, 2024 11:38:12
*** Written on Mon Aug 26, 2024 11:55:08 by Electric VLSI Design System, version 9.08e
*** Layout tech: josephson, foundry NONE
*** UC SPICE *** , MIN_RESIST 0.0, MIN_CAPAC 0.0FF
* Model cards copied from file: /Users/ivans/years/2020-2024/2024/2024-ivan/electric-2024/theBest1aug24/aTests/testJTLplain.txt
*** These are the print statement for testJTLplain
*** ies 26 August 2024
*** josim -o Aoutput.csv testJTLplain.cir 



.tran 0.1p 100p 0 0.1p


.print DEVV BJi|xJ36
.print DEVV BJi|xJ37
.print DEVV BJi|xJ64
.print DEVV BJi|xJ73




* End of Model cards copied from file: /Users/ivans/years/2020-2024/2024/2024-ivan/electric-2024/theBest1jul24/aTests/testJTL.txt
.model jmitll jj(rtype=1, vg=.002V, cap=0.07pF, r0=160, rN=16, icrit=0.0001A)


.SUBCKT junctionsBypassGround__gbj1p0 D 
BJi D gnd jmitll area=1.25
RRi D gnd 5.36
.ENDS junctionsBypassGround__gbj1p0


*** SUBCIRCUIT inductors__fixedInd1p5 FROM CELL inductors:fixedInd3p0{sch}
.SUBCKT inductors__fixedInd1p5 A B
LLi A B 7.891E-12
.ENDS inductors__fixedInd1p5


*** SUBCIRCUIT conductors__anyBias-Lk_0 FROM CELL conductors:anyBias{sch}
.SUBCKT conductors__anyBias-Lk_0  D
RR1 NN D 29.42
VrampSppl@0 NN gnd pwl (0 0 1p 0.0026V)
.ENDS conductors__anyBias-Lk_0_707



****.SUBCKT conductors__anyBias-Lk_0 D
****RR1 NN D 8
****VrampSppl@0 NN gnd pwl (0 0 1p 3.86V)
***.ENDS conductors__anyBias-Lk_0

*** SUBCIRCUIT junctions__jb2p0 FROM CELL junctions:jb2p0{sch}
.SUBCKT junctions__jb2p0 D S
BJi S D jmitll area=2.5
RRi S D 2.68
.ENDS junctions__jb2p0

*** SUBCIRCUIT junctions__jb200p0 FROM CELL junctions:jb200p0{sch}
.SUBCKT junctions__jb200p0 D S
BJi S D jmitll area=250.0
RRi S D 0.0268
.ENDS junctions__jb200p0

*** SUBCIRCUIT conductors__anyBias-Lk_1_414 FROM CELL conductors:anyBias{sch}
.SUBCKT conductors__anyBias-Lk_1_414 D
RR1 NN D 14.71
VrampSppl@0 NN gnd pwl (0 0 1p 0.0026V)
.ENDS conductors__anyBias-Lk_1_414

*** SUBCIRCUIT conductors__bias1p4 FROM CELL conductors:bias1p4{sch}
.SUBCKT conductors__bias1p4 D
Xnormaliz@0 D conductors__anyBias-Lk_1_414
.ENDS conductors__bias1p4

*** SUBCIRCUIT conductors__anyBias-Lk_141_4 FROM CELL conductors:anyBias{sch}
.SUBCKT conductors__anyBias-Lk_141_4 D
RR1 NN D 0.147
VrampSppl@0 NN gnd pwl (0 0 1p 0.0026V)
.ENDS conductors__anyBias-Lk_141_4

*** SUBCIRCUIT conductors__bias1p4x100 FROM CELL conductors:bias1p4x100{sch}
.SUBCKT conductors__bias1p4x100 D
Xnormaliz@0 D conductors__anyBias-Lk_141_4
.ENDS conductors__bias1p4x100

*** SUBCIRCUIT newJTL__phaseReference FROM CELL newJTL:phaseReference{sch}
.SUBCKT newJTL__phaseReference B1 B2 gnd
XJ1 gnd B1 junctions__jb2p0
XJ2 gnd B2 junctions__jb200p0
LM1 net@4 B1 10e-16
LM2 net@3 B2 10e-16
Xbias1p4@0 net@4 conductors__bias1p4
Xbias1p4x@0 net@3 conductors__bias1p4x100
.ENDS newJTL__phaseReference



**cart_pole_input**
.SUBCKT conductors__anyBias-Lk_0_701 bottom out
VrampSppl@0 bottom out pwl (0 0 53.042p 0.553245mV 1007.368p 0.547385mV 1007.631p 0.547385mV 1032.356p 0.550323mV 1045.228p 0.556041mV 1058.556p 0.560958mV 2037.202p 0.553138mV 2056.869p 0.550142mV 2057.657p 0.550142mV 2060.563p 0.549759mV 2094.984p 0.550728mV 2108.134p 0.552483mV 2117.083p 0.554992mV 2126.923p 0.558967mV 2133.567p 0.561505mV 3011.392p 0.551276mV 3020.87p 0.550888mV 3024.101p 0.550888mV 4006.911p 0.550233mV 4010.238p 0.550567mV 4010.649p 0.550567mV 4019.206p 0.550533mV 4019.303p 0.550533mV 4020.943p 0.550133mV 4031.1p 0.548232mV 4038.276p 0.547462mV 4041.034p 0.546325mV 5002.691p 0.553369mV 5020.594p 0.553419mV 5047.768p 0.554227mV 5072.396p 0.551037mV 5111.032p 0.540957mV 6022.417p 0.551098mV 6046.535p 0.550651mV 6059.294p 0.548205mV 6064.527p 0.547164mV 6069.594p 0.545755mV 6083.229p 0.540056mV 7017.643p 0.553323mV 7042.447p 0.551113mV 7051.511p 0.5516mV 7062.419p 0.552074mV 7094.687p 0.557068mV 7129.723p 0.556842mV 8004.237p 0.550534mV 8028.837p 0.552338mV 8050.54p 0.552347mV 8081.527p 0.548688mV 8104.424p 0.541886mV 8115.954p 0.536233mV 9007.123p 0.551225mV 9008.942p 0.551225mV 9026.814p 0.554118mV 9027.223p 0.554118mV 9053.738p 0.55812mV 9061.123p 0.560686mV 10001.474p 0.548939mV 10043.312p 0.538707mV 11057.086p 0.558893mV 11065.573p 0.562009mV 12020.228p 0.554004mV 12041.683p 0.54966mV 12046.602p 0.548935mV 12057.286p 0.548573mV 12058.752p 0.548573mV 12076.955p 0.547806mV 12088.01p 0.547399mV 13045.316p 0.542993mV 13046.642p 0.542993mV 13063.574p 0.540567mV 13081.382p 0.536575mV 14000.139p 0.546113mV 14020.055p 0.54649mV 14021.821p 0.54649mV 14030.804p 0.545941mV 14039.956p 0.545848mV 15031.469p 0.548293mV 15044.659p 0.547114mV 15064.025p 0.545464mV 15075.478p 0.54274mV 15087.162p 0.540056mV 16000.435p 0.552884mV 16012.296p 0.553095mV 16030.639p 0.55353mV 16038.748p 0.552728mV 17031.823p 0.551033mV 17042.498p 0.552093mV 17046.626p 0.552808mV 18052.335p 0.544544mV 18057.381p 0.544514mV 18067.973p 0.54481mV 18072.723p 0.544405mV 19003.008p 0.552928mV 19033.074p 0.549988mV 19034.341p 0.549988mV 19063.306p 0.54559mV 19087.259p 0.540119mV 20019.817p 0.551014mV 20046.995p 0.546428mV 21024.173p 0.549339mV 21026.12p 0.549276mV 21026.489p 0.549276mV 21049.556p 0.548291mV 21056.533p 0.549263mV 21060.436p 0.550297mV 22007.836p 0.554077mV 22028.031p 0.552843mV 22031.752p 0.552534mV 22081.493p 0.5461mV 22116.731p 0.55397mV 22118.004p 0.55397mV 22122.632p 0.555813mV 22147.67p 0.569771mV 22148.893p 0.569771mV 22152.471p 0.572345mV 22153.688p 0.572345mV 23016.269p 0.548965mV 23025.952p 0.549375mV 23041.252p 0.549447mV 23046.334p 0.548741mV 23082.46p 0.541613mV 23096.494p 0.53619mV 23103.282p 0.533646mV 24002.885p 0.54841mV 24025.457p 0.551821mV 24039.768p 0.555757mV 25009.947p 0.548268mV 25028.045p 0.547673mV 25031.108p 0.547343mV 25039.809p 0.547379mV 25045.133p 0.547819mV 25059.849p 0.548992mV 25063.903p 0.549397mV 25068.206p 0.549437mV 25103.31p 0.548289mV 25114.485p 0.546561mV 26000.139p 0.55216mV 26005.459p 0.552106mV 26013.226p 0.552417mV 26022.179p 0.554136mV 26043.789p 0.555384mV 26059.997p 0.555602mV 26078.539p 0.553963mV 26079.396p 0.553963mV 26081.033p 0.553557mV 26091.805p 0.553848mV 27038.009p 0.551694mV 27051.315p 0.556002mV 27063.204p 0.558515mV 27066.188p 0.559959mV 28003.87p 0.551146mV 28015.866p 0.552306mV 28052.094p 0.554626mV 28072.421p 0.562742mV 28073.938p 0.562742mV 28078.067p 0.564958mV 30034.828p 0.54941mV 30063.942p 0.55435mV 30076.045p 0.55629mV 30083.98p 0.556697mV 30100.318p 0.554701mV 30153.714p 0.53739mV 31027.423p 0.548161mV 31124.165p 0.561413mV 32025.143p 0.543779mV 32034.899p 0.543331mV 32038.872p 0.54325mV 32047.129p 0.542724mV 32047.429p 0.542724mV 32054.336p 0.54228mV 33023.594p 0.550992mV 33091.049p 0.547449mV 33107.908p 0.541759mV 33112.322p 0.539858mV 34005.837p 0.554288mV 34007.423p 0.554288mV 34028.976p 0.554303mV 34038.135p 0.553222mV 34066.209p 0.551467mV 34095.826p 0.553399mV 34102.437p 0.554517mV 34133.37p 0.556535mV 34136.225p 0.55658mV 34143.118p 0.556265mV 34146.798p 0.555589mV 34163.907p 0.551404mV 34167.024p 0.549289mV 34194.568p 0.538403mV 34207.335p 0.531757mV 34228.313p 0.521205mV 34261.274p 0.506549mV 34271.086p 0.500515mV 35021.935p 0.548214mV 35022.289p 0.548214mV 35049.774p 0.552594mV 35064.942p 0.555533mV 35088.193p 0.556363mV 35096.92p 0.55607mV 36041.608p 0.546962mV 36055.099p 0.545347mV 36077.808p 0.542677mV 36083.622p 0.542367mV 37011.556p 0.551059mV 37012.909p 0.551059mV 37037.55p 0.549293mV 37043.173p 0.548282mV 37053.853p 0.546626mV 37074.89p 0.541838mV 38017.349p 0.55155mV 38040.47p 0.54797mV 38077.979p 0.544538mV 38081.027p 0.543519mV 39031.22p 0.549651mV 39091.499p 0.555774mV 39158.482p 0.564286mV 39171.229p 0.563023mV 40003.392p 0.551946mV 40016.229p 0.551309mV 40067.595p 0.552193mV 40107.245p 0.555819mV 40131.409p 0.557203mV 40177.102p 0.549962mV 40183.417p 0.5488mV 40215.471p 0.542131mV 40248.445p 0.538422mV 40249.855p 0.538422mV 41020.461p 0.550736mV 41047.327p 0.553302mV 41047.558p 0.553302mV 41069.591p 0.554318mV 41077.588p 0.55336mV 41080.735p 0.552331mV 41108.167p 0.54826mV 41111.575p 0.547218mV 41119.54p 0.546538mV 43033.019p 0.546556mV 43033.024p 0.546556mV 43033.123p 0.546556mV 43040.331p 0.546971mV 43042.821p 0.546971mV 43061.242p 0.549279mV 43068.775p 0.549313mV 43075.22p 0.549753mV 43089.894p 0.550935mV 43098.188p 0.551399mV 43107.126p 0.550418mV 43121.887p 0.5477mV 43137.926p 0.543923mV 43143.356p 0.542915mV 43171.57p 0.532185mV 43183.572p 0.526922mV 44031.713p 0.546297mV 45010.801p 0.551498mV 45010.895p 0.551498mV 46008.214p 0.546274mV 46051.02p 0.542256mV 46057.836p 0.541522mV 46072.798p 0.539313mV 46076.112p 0.538572mV 46098.557p 0.53558mV 47002.05p 0.553095mV 47022.04p 0.553001mV 47023.994p 0.553001mV 47024.201p 0.553001mV 47031.823p 0.553323mV 47103.822p 0.545437mV 47105.924p 0.543962mV 47106.648p 0.543962mV 48049.351p 0.559991mV 49000.774p 0.553413mV 49044.289p 0.555502mV 49049.416p 0.555496mV 49057.852p 0.555855mV 49069.026p 0.556225mV 49088.483p 0.557728mV 49093.255p 0.558843mV 50018.916p 0.550154mV 50029.549p 0.549881mV 50039.587p 0.550341mV 50042.02p 0.550754mV 50048.219p 0.551533mV 50065.247p 0.553195mV 50097.6p 0.55244mV 50099.283p 0.55244mV 50100.348p 0.551406mV 50117.358p 0.54758mV 50147.875p 0.537362mV 50153.623p 0.536322mV 51016.15p 0.548334mV 51086.518p 0.5411mV 51098.9p 0.54018mV 51130.919p 0.535643mV 51169.573p 0.534288mV 52025.571p 0.547911mV 52027.097p 0.547911mV 52035.914p 0.548092mV 52035.947p 0.548092mV 52054.726p 0.549284mV 52072.008p 0.553328mV 52076.693p 0.554709mV 52084.515p 0.55646mV 53056.746p 0.549937mV 53074.921p 0.550136mV 53076.763p 0.550195mV 53082.101p 0.549886mV 53092.128p 0.548161mV 54006.702p 0.54651mV 54007.208p 0.54651mV 54041.473p 0.542858mV 54045.883p 0.542127mV 54066.103p 0.538452mV 55006.134p 0.553519mV 55006.846p 0.553519mV 55018.22p 0.554743mV 55052.056p 0.562548mV 56010.98p 0.552684mV 56011.212p 0.552684mV 56059.753p 0.556589mV 56072.316p 0.557906mV 56109.47p 0.558735mV 57025.309p 0.549961mV 57032.922p 0.548774mV 58005.124p 0.55275mV 58014.288p 0.552327mV 58073.871p 0.556026mV 58088.909p 0.556968mV 58127.203p 0.561023mV 58131.616p 0.56063mV 58142.012p 0.560952mV 59012.27p 0.554942mV 59017.724p 0.555021mV 59023.557p 0.554734mV 59048.648p 0.558789mV 59064.119p 0.561965mV 59064.626p 0.561965mV 59065.03p 0.562784mV 59069.082p 0.562784mV 59087.105p 0.566824mV 60009.458p 0.550707mV 60018.012p 0.550891mV 60021.548p 0.551165mV 61005.406p 0.545687mV 61007.795p 0.545687mV 61018.932p 0.546187mV 61028.725p 0.545221mV 61034.917p 0.54492mV 61054.68p 0.543701mV 61089.12p 0.548076mV 61134.697p 0.557582mV 61134.721p 0.557582mV 61135.05p 0.558355mV 61135.769p 0.558355mV 61139.537p 0.558355mV 61148.348p 0.56027mV 61160.782p 0.561873mV 61161.405p 0.561873mV 61194.724p 0.562562mV 62006.526p 0.548474mV 62008.668p 0.548474mV 62021.977p 0.547008mV 62076.021p 0.540028mV 62110.028p 0.539155mV 62127.779p 0.54014mV 62138.083p 0.540411mV 62141.601p 0.539993mV 63007.462p 0.5502mV 63013.46p 0.549811mV 63051.612p 0.550371mV 63058.117p 0.550352mV 63086.797p 0.549885mV 63093.021p 0.549503mV 63145.274p 0.555611mV 64005.631p 0.550645mV 64027.333p 0.55251mV 64046.425p 0.557308mV 64051.024p 0.55906mV 64063.508p 0.562937mV 65001.567p 0.549359mV 65035.091p 0.552429mV 65038.395p 0.552429mV 66005.105p 0.549551mV 66012.463p 0.549967mV 66054.911p 0.558422mV 66056.16p 0.559211mV 66074.289p 0.559403mV 66078.315p 0.558743mV 66083.126p 0.558452mV 67005.193p 0.55101mV 67050.368p 0.559321mV 68014.773p 0.551491mV 68033.046p 0.555695mV 68033.951p 0.555695mV 69004.027p 0.5477mV 69042.509p 0.548515mV 69055.948p 0.548889mV 69064.092p 0.549254mV 69070.111p 0.551078mV 69114.123p 0.564216mV 69131.595p 0.567913mV 70022.055p 0.549825mV 70025.166p 0.549821mV 70032.462p 0.54945mV 70063.001p 0.544628mV 70071.376p 0.542025mV 71012.146p 0.545117mV 71029.43p 0.546117mV 71040.754p 0.548946mV 71063.207p 0.556145mV 72019.536p 0.554268mV 72059.292p 0.552813mV 72071.613p 0.5509mV 73041.865p 0.555528mV 73052.072p 0.557461mV 73061.957p 0.558667mV 73111.845p 0.556798mV 73117.274p 0.55615mV 73141.409p 0.548194mV 73144.825p 0.548194mV 73181.002p 0.541635mV 73193.341p 0.539992mV 73222.178p 0.532109mV 74037.142p 0.547004mV 74062.946p 0.553976mV 74063.778p 0.553976mV 75005.083p 0.550193mV 75015.425p 0.550642mV 75017.73p 0.550642mV 75036.14p 0.551549mV 75116.235p 0.551697mV 75146.117p 0.549579mV 75147.586p 0.549579mV 75167.04p 0.543333mV 75189.61p 0.534907mV 76059.786p 0.557616mV 76103.529p 0.55804mV 76114.982p 0.556974mV 76158.65p 0.552024mV 76167.044p 0.552425mV 76181.311p 0.553204mV 76184.424p 0.553204mV 76229.708p 0.550414mV 76237.485p 0.548613mV 76250.604p 0.544255mV 76254.987p 0.544255mV 77008.445p 0.548159mV 77012.098p 0.548458mV 77045.216p 0.550536mV 77047.994p 0.550536mV 77081.331p 0.558839mV 77082.982p 0.558839mV 78000.686p 0.551565mV 78002.077p 0.551565mV 78003.446p 0.551565mV 78004.253p 0.551565mV 78045.49p 0.547082mV 78050.163p 0.546045mV 79030.263p 0.552437mV 79048.116p 0.55232mV 79049.717p 0.55232mV 79072.423p 0.551604mV 81008.324p 0.554519mV 81014.613p 0.554187mV 81015.404p 0.554222mV 81020.757p 0.554623mV 81040.962p 0.554775mV 81093.548p 0.553402mV 81127.2p 0.551218mV 81169.935p 0.548771mV 81171.223p 0.54847mV 81179.047p 0.547804mV 81179.708p 0.547804mV 81179.797p 0.547804mV 81184.625p 0.546772mV 81218.137p 0.538094mV 81221.581p 0.53706mV 81257.773p 0.533415mV 81276.588p 0.529912mV 82015.166p 0.548092mV 82033.566p 0.546748mV 82041.474p 0.546458mV 82061.979p 0.546592mV 82064.444p 0.546592mV 82093.144p 0.546379mV 82106.507p 0.546063mV 82168.973p 0.561374mV 83019.675p 0.552622mV 83036.721p 0.556852mV 83057.3p 0.559642mV 83058.599p 0.559642mV 84047.77p 0.553575mV 84061.027p 0.557752mV 85025.107p 0.552157mV 85034.573p 0.551857mV 85036.772p 0.551922mV 85047.165p 0.552419mV 85056.017p 0.553648mV 85074.576p 0.556043mV 85081.617p 0.557279mV 85089.583p 0.557351mV 85125.775p 0.561686mV 87021.67p 0.546662mV 87043.726p 0.542948mV 87054.384p 0.541083mV 87060.738p 0.53848mV 88003.89p 0.549293mV 88018.586p 0.550125mV 88030.271p 0.549872mV 88034.302p 0.549872mV 88062.301p 0.545396mV 88062.715p 0.545396mV 88063.77p 0.545396mV 88114.843p 0.542908mV 88128.5p 0.541643mV 88148.333p 0.534867mV 88148.835p 0.534867mV 89039.417p 0.561003mV 89051.334p 0.566087mV 90008.197p 0.55148mV 90010.745p 0.551871mV 90017.562p 0.551896mV 90039.171p 0.551984mV 90045.014p 0.552388mV 90073.023p 0.551369mV 90103.912p 0.559097mV 90136.088p 0.565394mV 90144.187p 0.567241mV 91004.099p 0.55147mV 91071.306p 0.555486mV 91087.866p 0.550927mV 91088.679p 0.550927mV 91111.95p 0.542108mV 91116.207p 0.540704mV 91122.56p 0.538932mV 93037.343p 0.555877mV 93040.412p 0.556229mV 93042.762p 0.556229mV 93074.99p 0.558032mV 93084.133p 0.557683mV 93089.472p 0.557697mV 93091.628p 0.55808mV 93099.141p 0.558102mV 94017.249p 0.549165mV 94068.996p 0.555553mV 94071.416p 0.555877mV 94078.094p 0.555841mV 94084.133p 0.555444mV 94122.953p 0.549515mV 94154.58p 0.54125mV 94176.112p 0.534179mV 94180.854p 0.533873mV 95005.769p 0.546216mV 95029.079p 0.543937mV 95032.616p 0.542818mV 95033.249p 0.542818mV 95045.5p 0.538724mV 96063.234p 0.548636mV 97001.955p 0.552368mV 97020.529p 0.553265mV 97087.368p 0.557515mV 97111.48p 0.556713mV 97117.944p 0.556045mV 97130.515p 0.555515mV 97161.589p 0.559256mV 97169.429p 0.560801mV 98004.533p 0.547448mV 98005.034p 0.547519mV 98006.979p 0.547519mV 98034.057p 0.544585mV 99011.726p 0.550069mV 99013.984p 0.550069mV 99025.79p 0.546653mV 99027.363p 0.546653mV 99034.201p 0.544783mV 99045.757p 0.537706mV 99054.225p 0.53583mV 100033.939p 0.543722mV 100077.897p 0.536769mV 101070.519p 0.557039mV 101104.737p 0.557665mV 102039.555p 0.552774mV 102048.318p 0.553726mV 102050.877p 0.55475mV 103012.355p 0.550303mV 103013.445p 0.550303mV 103039.766p 0.543494mV 104001.091p 0.551823mV 104036.428p 0.549365mV 104052.296p 0.546913mV 104142.556p 0.546463mV 104147.397p 0.54638mV 104168.349p 0.543858mV 104196.54p 0.539336mV 104196.842p 0.539336mV 104203.846p 0.538883mV 104214.754p 0.53907mV 104231.824p 0.539424mV 104262.721p 0.534786mV 104286.856p 0.532001mV 104287.485p 0.532001mV 104345.015p 0.543206mV 104371.987p 0.550581mV 105001.594p 0.548007mV 105050.052p 0.545514mV 105064.545p 0.544289mV 105093.907p 0.543523mV 106011.154p 0.551774mV 106055.648p 0.555513mV 106059.403p 0.555513mV 106072.551p 0.556777mV 106082.087p 0.558484mV 106090.138p 0.561664mV 107123.193p 0.559098mV 107159.246p 0.552192mV 107195.741p 0.535602mV 108002.836p 0.551583mV 108007.988p 0.551645mV 108053.323p 0.543748mV 108057.142p 0.542331mV 109032.079p 0.554144mV 109037.571p 0.555522mV 110047.736p 0.54938mV 111052.544p 0.552124mV 111059.926p 0.55132mV 112003.295p 0.551874mV 112026.68p 0.552899mV 113001.79p 0.554072mV 113042.117p 0.552816mV 113049.438p 0.553477mV 113056.443p 0.555895mV 114007.528p 0.550712mV 114049.686p 0.553295mV 114080.342p 0.550064mV 114096.229p 0.548444mV 114118.16p 0.54508mV 114118.548p 0.54508mV 114156.623p 0.531759mV 114164.805p 0.529263mV 115023.731p 0.549903mV 115037.703p 0.549267mV 115043.883p 0.54954mV 115045.005p 0.550176mV 115057.942p 0.550346mV 115069.665p 0.549046mV 115088.735p 0.544227mV 116005.018p 0.54967mV 116015.785p 0.550207mV 116023.11p 0.550658mV 116024.226p 0.550658mV 116052.282p 0.547881mV 116056.216p 0.547234mV 116114.022p 0.544336mV 116126.982p 0.545559mV 117007.744p 0.549583mV 117024.034p 0.547605mV 118003.334p 0.549741mV 118007.731p 0.549704mV 118015.602p 0.549997mV 118016.578p 0.549997mV 119022.737p 0.55079mV 119035.291p 0.551339mV 119038.626p 0.551339mV 119045.04p 0.551103mV 119059.076p 0.550874mV 120015.73p 0.549672mV 120026.938p 0.549315mV 120044.782p 0.547122mV 121004.725p 0.552018mV 121005.241p 0.551957mV 121018.096p 0.552935mV 121038.396p 0.557091mV 121054.507p 0.55913mV 121056.127p 0.559815mV 121067.072p 0.561562mV 122008.789p 0.55194mV 122076.355p 0.565308mV 123012.572p 0.553409mV 123020.554p 0.553831mV 123025.41p 0.554593mV 123034.67p 0.554989mV 123048.494p 0.558379mV 124014.799p 0.551642mV 124050.376p 0.542329mV 124052.235p 0.542329mV 124052.461p 0.542329mV 124055.348p 0.542252mV 125012.386p 0.55158mV 125014.345p 0.55158mV 125018.12p 0.552303mV 125024.53p 0.553391mV 125024.992p 0.553391mV 125085.542p 0.561457mV 125093.77p 0.562574mV 126025.95p 0.548624mV 126030.035p 0.548928mV 126062.102p 0.549655mV 126065.948p 0.550326mV 127002.386p 0.55188mV 127033.694p 0.546565mV 127040.503p 0.54454mV 127046.74p 0.542976mV 127047.009p 0.542976mV 127055.723p 0.540934mV 128021.375p 0.545297mV 128022.297p 0.545297mV 128029.552p 0.544578mV 128046.971p 0.538765mV 129029.844p 0.54936mV 129041.152p 0.55177mV 129045.365p 0.553307mV 130011.657p 0.54808mV 130020.437p 0.547553mV 130025.491p 0.54674mV 130032.382p 0.546291mV 130034.958p 0.546291mV 130047.457p 0.547131mV 130078.941p 0.549874mV 130100.872p 0.553427mV 130133.622p 0.55399mV 131010.995p 0.554268mV 131016.706p 0.554193mV 131036.215p 0.551697mV 131037.839p 0.551697mV 131042.724p 0.551254mV 131086.375p 0.556383mV 131105.328p 0.556802mV 131105.752p 0.556802mV 131118.095p 0.558481mV 131135.454p 0.561859mV 132003.485p 0.551727mV 132005.936p 0.551789mV 132016.503p 0.55155mV 132019.41p 0.55155mV 132086.626p 0.557324mV 132120.65p 0.551435mV 132125.225p 0.550812mV 132150.723p 0.547364mV 132162.31p 0.544315mV 132173.2p 0.542003mV 132193.022p 0.536653mV 132218.913p 0.532891mV 132226.783p 0.529116mV 132240.844p 0.522899mV 132242.19p 0.522899mV 133004.181p 0.552329mV 133039.917p 0.545277mV 134041.886p 0.559893mV 134042.79p 0.559893mV 134068.055p 0.563932mV 135063.76p 0.555721mV 135084.61p 0.562674mV 136014.701p 0.548982mV 136027.204p 0.550863mV 136065.782p 0.548896mV 136120.253p 0.528848mV 137016.432p 0.549508mV 137056.737p 0.546688mV 137068.254p 0.544886mV 137077.319p 0.543811mV 138047.757p 0.547295mV 138068.447p 0.549323mV 138082.216p 0.550677mV 138101.286p 0.548369mV 138121.54p 0.543902mV 138160.688p 0.54306mV 138164.777p 0.54306mV 138181.842p 0.543035mV 138184.559p 0.543035mV 138192.644p 0.544864mV 139019.834p 0.550791mV 139047.414p 0.548485mV 139063.923p 0.547895mV 139065.741p 0.547943mV 139116.592p 0.553235mV 139126.338p 0.555198mV 140018.739p 0.547255mV 140060.151p 0.553424mV 140073.576p 0.558013mV 141079.02p 0.546914mV 141107.882p 0.553794mV 141127.509p 0.555201mV 141131.511p 0.555552mV 141132.124p 0.555552mV 141138.981p 0.555538mV 141152.206p 0.555492mV 141166.824p 0.556538mV 141210.519p 0.563268mV 141242.37p 0.578087mV 142004.174p 0.552927mV 142019.504p 0.551808mV 142044.719p 0.549196mV 142050.434p 0.547337mV 143022.979p 0.548476mV 143046.611p 0.544129mV 143047.561p 0.544129mV 143074.315p 0.537185mV 144058.17p 0.548182mV 144092.101p 0.548015mV 144125.724p 0.545926mV 145004.789p 0.550202mV 145027.398p 0.552605mV 146006.816p 0.554377mV 146027.3p 0.553909mV 146064.749p 0.551484mV 146071.312p 0.551997mV 146079.965p 0.55207mV 146107.72p 0.557279mV 146108.499p 0.557279mV 147006.534p 0.552766mV 147008.989p 0.552766mV 147039.896p 0.552609mV 147088.545p 0.54606mV 147094.46p 0.544268mV 147101.218p 0.541046mV 148020.957p 0.547148mV 148045.502p 0.543176mV 148045.922p 0.543176mV 149014.366p 0.553706mV 149022.835p 0.554014mV 149023.74p 0.554014mV 149037.25p 0.555749mV 149041.955p 0.556814mV 149076.503p 0.563555mV 149101.783p 0.567507mV 149104.536p 0.567507mV 150032.578p 0.547043mV 150034.719p 0.547043mV 150035.83p 0.547136mV 150055.002p 0.549709mV 150080.125p 0.554237mV 150095.689p 0.555672mV 150099.675p 0.555672mV 150113.418p 0.556779mV 150113.984p 0.556779mV 150114.326p 0.556779mV 151033.17p 0.557565mV 151036.18p 0.557519mV 151045.22p 0.55853mV 151047.655p 0.55853mV 152000.506p 0.553992mV 152011.571p 0.553783mV 152020.315p 0.554301mV 152021.147p 0.554301mV 153036.087p 0.560228mV 154026.19p 0.546802mV 154036.7p 0.547164mV 154040.228p 0.547527mV 154062.698p 0.547502mV 154063.86p 0.547502mV 154097.649p 0.547039mV 154110.942p 0.544774mV 155036.578p 0.550162mV 155041.296p 0.549844mV 156065.513p 0.554523mV 156083.777p 0.558134mV 157036.311p 0.542454mV 158002.291p 0.552143mV 158012.039p 0.551727mV 158034.481p 0.547219mV 158040.649p 0.544585mV 158042.753p 0.544585mV 158048.939p 0.543081mV 158049.569p 0.543081mV 159027.958p 0.551386mV 159036.141p 0.552503mV 159047.233p 0.555093mV 160021.088p 0.552165mV 160026.678p 0.551427mV 160039.11p 0.550317mV 160078.0p 0.547281mV 160106.77p 0.54307mV 161038.87p 0.549918mV 161058.957p 0.548871mV 161063.915p 0.548426mV 161064.52p 0.548426mV 161086.407p 0.548022mV 161164.479p 0.556974mV 161178.54p 0.555656mV 161183.935p 0.555223mV 161186.293p 0.554427mV 161193.133p 0.553269mV 161204.615p 0.550592mV 161238.386p 0.535212mV 162034.661p 0.546384mV 162043.544p 0.547659mV 162055.954p 0.549026mV 162059.793p 0.549026mV 162072.362p 0.551495mV 163000.044p 0.547713mV 163005.31p 0.547643mV 163007.008p 0.547643mV 164004.402p 0.551771mV 164024.386p 0.554107mV 164032.457p 0.555284mV 164053.008p 0.558397mV 165017.749p 0.546787mV 165041.082p 0.551022mV 167046.556p 0.53669mV 168001.799p 0.549174mV 168004.845p 0.549174mV 168006.37p 0.54919mV 168007.266p 0.54919mV 168047.976p 0.555195mV 168051.251p 0.555588mV 168053.404p 0.555588mV 168065.996p 0.557516mV 169007.265p 0.547069mV 169058.567p 0.553037mV 169061.2p 0.553382mV 169084.786p 0.553316mV 169086.498p 0.554035mV 169103.778p 0.556207mV 169137.684p 0.555915mV 169144.258p 0.556307mV 170003.046p 0.553533mV 170020.423p 0.553155mV 170059.091p 0.558684mV 171049.939p 0.561168mV 172005.141p 0.548529mV 172016.977p 0.548001mV 172024.065p 0.548287mV 172038.758p 0.548417mV 172054.494p 0.549653mV 172071.583p 0.54937mV 172095.597p 0.553451mV 173011.002p 0.547974mV 173014.978p 0.547974mV 173024.487p 0.54767mV 173033.314p 0.546635mV 173054.683p 0.54896mV 173070.604p 0.554222mV 173076.958p 0.556456mV 174025.577p 0.547708mV 174027.097p 0.547708mV 174078.98p 0.549807mV 174102.136p 0.552185mV 174108.818p 0.553033mV 174109.204p 0.553033mV 174129.246p 0.552811mV 174154.813p 0.548063mV 174159.613p 0.54676mV 174178.727p 0.543778mV 174191.097p 0.542129mV 174202.146p 0.540686mV 174204.154p 0.540686mV 175045.011p 0.557966mV 175048.159p 0.557966mV 176046.851p 0.542459mV 176051.668p 0.541405mV 177032.42p 0.551061mV 178000.336p 0.546306mV 178031.054p 0.546366mV 178050.21p 0.551795mV 178052.255p 0.551795mV 179001.361p 0.549073mV 179038.593p 0.542432mV 179047.869p 0.538278mV 180018.728p 0.552532mV 180060.217p 0.551441mV 180076.139p 0.550566mV 180119.85p 0.549576mV 181008.485p 0.547759mV 181028.533p 0.548548mV 181043.474p 0.550782mV 181065.015p 0.553784mV 181078.261p 0.554192mV 181136.555p 0.542138mV 182025.767p 0.550851mV 182033.434p 0.549831mV 182044.95p 0.547419mV 182053.525p 0.545727mV 183007.592p 0.546442mV 183038.45p 0.548242mV 183053.859p 0.547494mV 183072.258p 0.546737mV 183073.792p 0.546737mV 183085.09p 0.544149mV 183101.671p 0.543375mV 183106.92p 0.543356mV 183108.101p 0.543356mV 183114.921p 0.5437mV 183174.572p 0.562306mV 183179.165p 0.564468mV 184005.314p 0.550962mV 184043.203p 0.550111mV 184048.123p 0.549367mV 184154.195p 0.55087mV 184159.312p 0.552315mV 185001.808p 0.552594mV 185017.772p 0.553432mV 186007.125p 0.552504mV 186009.947p 0.552504mV 186024.205p 0.552729mV 187001.764p 0.546042mV 187002.645p 0.546042mV 187017.296p 0.545191mV 187023.749p 0.544909mV 187059.885p 0.537809mV 188014.75p 0.552548mV 189001.172p 0.547783mV 189047.261p 0.552517mV 189053.419p 0.55366mV 189054.844p 0.55366mV 189055.186p 0.555173mV 190128.209p 0.556125mV 191017.292p 0.547322mV 191028.332p 0.549783mV 192012.253p 0.5499mV 192012.874p 0.5499mV 192025.681p 0.550356mV 192043.181p 0.550461mV 192051.313p 0.551636mV 192057.752p 0.551678mV 192088.739p 0.550889mV 192096.52p 0.55065mV 192115.824p 0.550211mV 192117.61p 0.550211mV 193013.566p 0.547946mV 194009.317p 0.552542mV 194019.903p 0.551565mV 195006.179p 0.549615mV 195029.747p 0.545843mV 195032.059p 0.544718mV 195033.85p 0.544718mV 195039.609p 0.543959mV 195042.595p 0.543566mV 195048.377p 0.542805mV 195100.232p 0.535765mV 196011.287p 0.550606mV 196034.301p 0.553901mV 196046.93p 0.556753mV 196047.627p 0.556753mV 196070.747p 0.560589mV 196070.782p 0.560589mV 197001.045p 0.547645mV 197004.897p 0.547645mV 197008.826p 0.547676mV 197022.384p 0.549238mV 197032.328p 0.548943mV 197036.401p 0.548981mV 197057.019p 0.552074mV 197066.832p 0.552536mV 197072.662p 0.552224mV 197076.861p 0.551549mV 197077.963p 0.551549mV 197110.811p 0.550572mV 198004.613p 0.549132mV 198052.631p 0.542977mV 198079.42p 0.542608mV 198111.224p 0.537625mV 199006.182p 0.552913mV 199019.632p 0.553993mV 199067.909p 0.553602mV 200003.656p 0.55087mV 200004.061p 0.55087mV 200089.819p 0.559155mV 201006.92p 0.552516mV 201007.091p 0.552516mV 201010.103p 0.552831mV 201015.704p 0.552778mV 201021.489p 0.552359mV 201037.776p 0.548899mV 202010.735p 0.553619mV 202031.221p 0.553595mV 202036.149p 0.554321mV 202039.096p 0.554321mV 202042.854p 0.555413mV 202043.551p 0.555413mV 202044.305p 0.555413mV 202082.843p 0.563478mV 203002.077p 0.553877mV 203006.112p 0.553834mV 203027.987p 0.553648mV 203063.158p 0.549602mV 204001.966p 0.546469mV 204042.665p 0.553203mV 205000.48p 0.553287mV 205025.88p 0.551429mV 205041.383p 0.549738mV 206020.26p 0.550558mV 206059.834p 0.552513mV 206080.838p 0.555383mV 206119.76p 0.560371mV 207003.216p 0.546952mV 207008.653p 0.547015mV 207033.906p 0.546216mV 207038.522p 0.545541mV 207055.224p 0.545018mV 207066.723p 0.544012mV 207068.292p 0.544012mV 207071.053p 0.543688mV 208001.837p 0.552938mV 208070.483p 0.54855mV 208077.117p 0.547173mV 208095.148p 0.54239mV 208097.046p 0.54239mV 208099.556p 0.54239mV 209012.435p 0.551365mV 209012.873p 0.551365mV 209036.511p 0.550884mV 209039.494p 0.550884mV 209054.14p 0.551755mV 209056.157p 0.552531mV 209056.88p 0.552531mV 209067.397p 0.552983mV 209083.915p 0.555304mV 210017.406p 0.550444mV 210022.713p 0.550785mV 210024.062p 0.550785mV 210026.059p 0.551491mV 210043.305p 0.552141mV 210124.232p 0.557549mV 210149.361p 0.560365mV 210150.309p 0.560713mV 210165.327p 0.5625mV 210191.085p 0.562118mV 210198.135p 0.562124mV 210198.447p 0.562124mV 210214.407p 0.562159mV 210222.889p 0.564025mV 211019.695p 0.552995mV 211019.959p 0.552995mV 211077.582p 0.553042mV 211084.154p 0.552627mV 211095.333p 0.551393mV 211118.48p 0.549769mV 211119.555p 0.549769mV 211138.899p 0.551096mV 212003.574p 0.554459mV 212035.956p 0.549602mV 212045.02p 0.549401mV 213002.654p 0.548432mV 213023.646p 0.549054mV 213032.886p 0.550104mV 214025.479p 0.551472mV 215003.997p 0.553555mV 215029.958p 0.554987mV 215075.626p 0.559735mV 215078.97p 0.559735mV 215084.0p 0.560111mV 215088.959p 0.560124mV 215099.751p 0.560525mV 215105.538p 0.560207mV 215111.431p 0.559872mV 215162.098p 0.554895mV 216005.53p 0.550444mV 216007.189p 0.550444mV 216020.71p 0.549494mV 216031.819p 0.548256mV 216093.675p 0.53863mV 216108.636p 0.535828mV 216115.375p 0.533092mV 217003.88p 0.5527mV 217089.473p 0.560664mV 217111.64p 0.563728mV 217113.069p 0.563728mV 218033.153p 0.548501mV 218064.846p 0.540023mV 218079.068p 0.535209mV 219008.224p 0.550728mV 219019.993p 0.551275mV 219033.111p 0.553734mV 219077.677p 0.565536mV 219080.906p 0.566739mV 220001.946p 0.546397mV 220016.209p 0.546941mV 220019.913p 0.546941mV 220050.342p 0.548855mV 220056.615p 0.548926mV 220065.691p 0.549438mV 220066.578p 0.549438mV 220075.12p 0.548497mV 220102.939p 0.543441mV 220107.642p 0.541338mV 220126.569p 0.533658mV 220135.572p 0.52981mV 220140.575p 0.527334mV 221010.532p 0.55314mV 221011.49p 0.55314mV 221012.099p 0.55314mV 221013.591p 0.55314mV 221020.094p 0.552895mV 221070.708p 0.556783mV 221071.74p 0.556783mV 221091.963p 0.554843mV 221120.939p 0.557067mV 221121.837p 0.557067mV 221124.39p 0.557067mV 221135.834p 0.556176mV 221138.211p 0.556176mV 221141.683p 0.555881mV 221146.844p 0.555221mV 221150.822p 0.554927mV 221208.947p 0.555374mV 221209.609p 0.555374mV 223006.965p 0.548356mV 223017.358p 0.547175mV 223024.244p 0.546037mV 223039.015p 0.542628mV 223063.529p 0.54059mV 224003.247p 0.551461mV 224007.211p 0.551481mV 224024.859p 0.552281mV 225011.512p 0.554729mV 225056.187p 0.559369mV 226034.283p 0.545325mV 226055.212p 0.540962mV 227017.521p 0.553508mV 227027.773p 0.55442mV 227028.511p 0.55442mV 227055.549p 0.557145mV 227068.02p 0.557323mV 227086.274p 0.557684mV 227101.30